[root]
type=Root
children=system
eventq_index=0
full_system=false
sim_quantum=0
time_sync_enable=false
time_sync_period=100000000000
time_sync_spin_threshold=100000000

[system]
type=System
children=clk_domain cpu_cluster dvfs_handler mem_ctrls0 mem_ctrls1 membus voltage_domain workload
cache_line_size=64
eventq_index=0
exit_on_work_items=false
init_param=0
m5ops_base=0
mem_mode=timing
mem_ranges=0:2147483648
memories=system.mem_ctrls0.dram system.mem_ctrls1.dram
mmap_using_noreserve=false
multi_thread=false
num_work_ids=16
readfile=
redirect_paths=
shadow_rom_ranges=
shared_backstore=
symbolfile=
thermal_components=
thermal_model=Null
work_begin_ckpt_count=0
work_begin_cpu_id_exit=-1
work_begin_exit_count=0
work_cpus_ckpt_count=0
work_end_ckpt_count=0
work_end_exit_count=0
work_item_id=-1
workload=system.workload
system_port=system.membus.cpu_side_ports[0]

[system.clk_domain]
type=SrcClockDomain
clock=1000
domain_id=-1
eventq_index=0
init_perf_level=0
voltage_domain=system.voltage_domain

[system.cpu_cluster]
type=SubSystem
children=clk_domain cpus l2 toL2Bus voltage_domain
eventq_index=0
thermal_domain=Null

[system.cpu_cluster.clk_domain]
type=SrcClockDomain
clock=250
domain_id=-1
eventq_index=0
init_perf_level=0
voltage_domain=system.cpu_cluster.voltage_domain

[system.cpu_cluster.cpus]
type=MinorCPU
children=branchPred dcache decoder executeFuncUnits icache interrupts isa mmu power_state tracer workload
branchPred=system.cpu_cluster.cpus.branchPred
checker=Null
clk_domain=system.cpu_cluster.clk_domain
cpu_id=0
decodeCycleInput=true
decodeInputBufferSize=3
decodeInputWidth=2
decodeToExecuteForwardDelay=1
decoder=system.cpu_cluster.cpus.decoder
do_checkpoint_insts=true
do_statistics_insts=true
enableIdling=true
eventq_index=0
executeAllowEarlyMemoryIssue=true
executeBranchDelay=1
executeCommitLimit=2
executeCycleInput=true
executeFuncUnits=system.cpu_cluster.cpus.executeFuncUnits
executeInputBufferSize=7
executeInputWidth=2
executeIssueLimit=2
executeLSQMaxStoreBufferStoresPerCycle=2
executeLSQRequestsQueueSize=1
executeLSQStoreBufferSize=5
executeLSQTransfersQueueSize=2
executeMaxAccessesInMemory=2
executeMemoryCommitLimit=1
executeMemoryIssueLimit=1
executeMemoryWidth=0
executeSetTraceTimeOnCommit=true
executeSetTraceTimeOnIssue=false
fetch1FetchLimit=1
fetch1LineSnapWidth=0
fetch1LineWidth=0
fetch1ToFetch2BackwardDelay=1
fetch1ToFetch2ForwardDelay=1
fetch2CycleInput=true
fetch2InputBufferSize=2
fetch2ToDecodeForwardDelay=1
function_trace=false
function_trace_start=0
interrupts=system.cpu_cluster.cpus.interrupts
isa=system.cpu_cluster.cpus.isa
max_insts_all_threads=0
max_insts_any_thread=0
mmu=system.cpu_cluster.cpus.mmu
numThreads=1
power_gating_on_idle=false
power_model=
power_state=system.cpu_cluster.cpus.power_state
progress_interval=0
pwr_gating_latency=300
simpoint_start_insts=
socket_id=0
switched_out=false
syscallRetryLatency=10000
system=system
threadPolicy=RoundRobin
tracer=system.cpu_cluster.cpus.tracer
workload=system.cpu_cluster.cpus.workload
dcache_port=system.cpu_cluster.cpus.dcache.cpu_side
icache_port=system.cpu_cluster.cpus.icache.cpu_side

[system.cpu_cluster.cpus.branchPred]
type=TournamentBP
children=indirectBranchPred
BTBEntries=128
BTBTagSize=18
RASSize=8
choiceCtrBits=2
choicePredictorSize=1024
eventq_index=0
globalCtrBits=2
globalPredictorSize=1024
indirectBranchPred=system.cpu_cluster.cpus.branchPred.indirectBranchPred
instShiftAmt=2
localCtrBits=2
localHistoryTableSize=64
localPredictorSize=64
numThreads=1

[system.cpu_cluster.cpus.branchPred.indirectBranchPred]
type=SimpleIndirectPredictor
eventq_index=0
indirectGHRBits=13
indirectHashGHR=true
indirectHashTargets=true
indirectPathLength=3
indirectSets=256
indirectTagSize=16
indirectWays=2
instShiftAmt=2
numThreads=1

[system.cpu_cluster.cpus.dcache]
type=Cache
children=power_state prefetcher replacement_policy tags
addr_ranges=0:18446744073709551615
assoc=4
clk_domain=system.cpu_cluster.clk_domain
clusivity=mostly_incl
compressor=Null
data_latency=1
demand_mshr_reserve=1
eventq_index=0
is_read_only=false
max_miss_count=0
move_contractions=true
mshrs=4
power_model=
power_state=system.cpu_cluster.cpus.dcache.power_state
prefetch_on_access=false
prefetch_on_pf_hit=false
prefetcher=system.cpu_cluster.cpus.dcache.prefetcher
replace_expansions=true
replacement_policy=system.cpu_cluster.cpus.dcache.replacement_policy
response_latency=1
sequential_access=false
size=32768
system=system
tag_latency=1
tags=system.cpu_cluster.cpus.dcache.tags
tgts_per_mshr=8
warmup_percentage=0
write_allocator=Null
write_buffers=4
writeback_clean=false
cpu_side=system.cpu_cluster.cpus.dcache_port
mem_side=system.cpu_cluster.toL2Bus.cpu_side_ports[1]

[system.cpu_cluster.cpus.dcache.power_state]
type=PowerState
clk_gate_bins=20
clk_gate_max=1000000000000
clk_gate_min=1000
default_state=UNDEFINED
eventq_index=0
leaders=
possible_states=

[system.cpu_cluster.cpus.dcache.prefetcher]
type=StridePrefetcher
children=power_state table_indexing_policy table_replacement_policy
block_size=64
cache_snoop=false
clk_domain=system.cpu_cluster.clk_domain
confidence_counter_bits=3
confidence_threshold=50
degree=4
eventq_index=0
initial_confidence=4
latency=1
max_prefetch_requests_with_pending_translation=32
on_data=true
on_inst=false
on_miss=false
on_read=true
on_write=true
page_bytes=4096
power_model=
power_state=system.cpu_cluster.cpus.dcache.prefetcher.power_state
prefetch_on_access=false
prefetch_on_pf_hit=false
queue_filter=true
queue_size=4
queue_squash=true
sys=system
table_assoc=4
table_entries=64
table_indexing_policy=system.cpu_cluster.cpus.dcache.prefetcher.table_indexing_policy
table_replacement_policy=system.cpu_cluster.cpus.dcache.prefetcher.table_replacement_policy
tag_prefetch=true
throttle_control_percentage=0
use_requestor_id=true
use_virtual_addresses=false

[system.cpu_cluster.cpus.dcache.prefetcher.power_state]
type=PowerState
clk_gate_bins=20
clk_gate_max=1000000000000
clk_gate_min=1000
default_state=UNDEFINED
eventq_index=0
leaders=
possible_states=

[system.cpu_cluster.cpus.dcache.prefetcher.table_indexing_policy]
type=StridePrefetcherHashedSetAssociative
assoc=4
entry_size=1
eventq_index=0
size=64

[system.cpu_cluster.cpus.dcache.prefetcher.table_replacement_policy]
type=RandomRP
eventq_index=0

[system.cpu_cluster.cpus.dcache.replacement_policy]
type=LRURP
eventq_index=0

[system.cpu_cluster.cpus.dcache.tags]
type=BaseSetAssoc
children=indexing_policy power_state
assoc=4
block_size=64
clk_domain=system.cpu_cluster.clk_domain
entry_size=64
eventq_index=0
indexing_policy=system.cpu_cluster.cpus.dcache.tags.indexing_policy
power_model=
power_state=system.cpu_cluster.cpus.dcache.tags.power_state
replacement_policy=system.cpu_cluster.cpus.dcache.replacement_policy
sequential_access=false
size=32768
system=system
tag_latency=1
warmup_percentage=0

[system.cpu_cluster.cpus.dcache.tags.indexing_policy]
type=SetAssociative
assoc=4
entry_size=64
eventq_index=0
size=32768

[system.cpu_cluster.cpus.dcache.tags.power_state]
type=PowerState
clk_gate_bins=20
clk_gate_max=1000000000000
clk_gate_min=1000
default_state=UNDEFINED
eventq_index=0
leaders=
possible_states=

[system.cpu_cluster.cpus.decoder]
type=ArmDecoder
eventq_index=0
isa=system.cpu_cluster.cpus.isa

[system.cpu_cluster.cpus.executeFuncUnits]
type=MinorFUPool
children=funcUnits0 funcUnits1 funcUnits2 funcUnits3 funcUnits4 funcUnits5 funcUnits6 funcUnits7 funcUnits8 funcUnits9
eventq_index=0
funcUnits=system.cpu_cluster.cpus.executeFuncUnits.funcUnits0 system.cpu_cluster.cpus.executeFuncUnits.funcUnits1 system.cpu_cluster.cpus.executeFuncUnits.funcUnits2 system.cpu_cluster.cpus.executeFuncUnits.funcUnits3 system.cpu_cluster.cpus.executeFuncUnits.funcUnits4 system.cpu_cluster.cpus.executeFuncUnits.funcUnits5 system.cpu_cluster.cpus.executeFuncUnits.funcUnits6 system.cpu_cluster.cpus.executeFuncUnits.funcUnits7 system.cpu_cluster.cpus.executeFuncUnits.funcUnits8 system.cpu_cluster.cpus.executeFuncUnits.funcUnits9

[system.cpu_cluster.cpus.executeFuncUnits.funcUnits0]
type=MinorFU
children=opClasses timings00 timings01 timings02 timings03 timings04 timings05 timings06 timings07 timings08 timings09 timings10 timings11 timings12 timings13 timings14 timings15 timings16 timings17 timings18 timings19 timings20 timings21 timings22 timings23 timings24 timings25 timings26 timings27 timings28 timings29 timings30 timings31 timings32 timings33 timings34 timings35 timings36 timings37 timings38 timings39 timings40 timings41 timings42
cantForwardFromFUIndices=
eventq_index=0
issueLat=1
opClasses=system.cpu_cluster.cpus.executeFuncUnits.funcUnits0.opClasses
opLat=3
timings=system.cpu_cluster.cpus.executeFuncUnits.funcUnits0.timings00 system.cpu_cluster.cpus.executeFuncUnits.funcUnits0.timings01 system.cpu_cluster.cpus.executeFuncUnits.funcUnits0.timings02 system.cpu_cluster.cpus.executeFuncUnits.funcUnits0.timings03 system.cpu_cluster.cpus.executeFuncUnits.funcUnits0.timings04 system.cpu_cluster.cpus.executeFuncUnits.funcUnits0.timings05 system.cpu_cluster.cpus.executeFuncUnits.funcUnits0.timings06 system.cpu_cluster.cpus.executeFuncUnits.funcUnits0.timings07 system.cpu_cluster.cpus.executeFuncUnits.funcUnits0.timings08 system.cpu_cluster.cpus.executeFuncUnits.funcUnits0.timings09 system.cpu_cluster.cpus.executeFuncUnits.funcUnits0.timings10 system.cpu_cluster.cpus.executeFuncUnits.funcUnits0.timings11 system.cpu_cluster.cpus.executeFuncUnits.funcUnits0.timings12 system.cpu_cluster.cpus.executeFuncUnits.funcUnits0.timings13 system.cpu_cluster.cpus.executeFuncUnits.funcUnits0.timings14 system.cpu_cluster.cpus.executeFuncUnits.funcUnits0.timings15 system.cpu_cluster.cpus.executeFuncUnits.funcUnits0.timings16 system.cpu_cluster.cpus.executeFuncUnits.funcUnits0.timings17 system.cpu_cluster.cpus.executeFuncUnits.funcUnits0.timings18 system.cpu_cluster.cpus.executeFuncUnits.funcUnits0.timings19 system.cpu_cluster.cpus.executeFuncUnits.funcUnits0.timings20 system.cpu_cluster.cpus.executeFuncUnits.funcUnits0.timings21 system.cpu_cluster.cpus.executeFuncUnits.funcUnits0.timings22 system.cpu_cluster.cpus.executeFuncUnits.funcUnits0.timings23 system.cpu_cluster.cpus.executeFuncUnits.funcUnits0.timings24 system.cpu_cluster.cpus.executeFuncUnits.funcUnits0.timings25 system.cpu_cluster.cpus.executeFuncUnits.funcUnits0.timings26 system.cpu_cluster.cpus.executeFuncUnits.funcUnits0.timings27 system.cpu_cluster.cpus.executeFuncUnits.funcUnits0.timings28 system.cpu_cluster.cpus.executeFuncUnits.funcUnits0.timings29 system.cpu_cluster.cpus.executeFuncUnits.funcUnits0.timings30 system.cpu_cluster.cpus.executeFuncUnits.funcUnits0.timings31 system.cpu_cluster.cpus.executeFuncUnits.funcUnits0.timings32 system.cpu_cluster.cpus.executeFuncUnits.funcUnits0.timings33 system.cpu_cluster.cpus.executeFuncUnits.funcUnits0.timings34 system.cpu_cluster.cpus.executeFuncUnits.funcUnits0.timings35 system.cpu_cluster.cpus.executeFuncUnits.funcUnits0.timings36 system.cpu_cluster.cpus.executeFuncUnits.funcUnits0.timings37 system.cpu_cluster.cpus.executeFuncUnits.funcUnits0.timings38 system.cpu_cluster.cpus.executeFuncUnits.funcUnits0.timings39 system.cpu_cluster.cpus.executeFuncUnits.funcUnits0.timings40 system.cpu_cluster.cpus.executeFuncUnits.funcUnits0.timings41 system.cpu_cluster.cpus.executeFuncUnits.funcUnits0.timings42

[system.cpu_cluster.cpus.executeFuncUnits.funcUnits0.opClasses]
type=MinorOpClassSet
children=opClasses
eventq_index=0
opClasses=system.cpu_cluster.cpus.executeFuncUnits.funcUnits0.opClasses.opClasses

[system.cpu_cluster.cpus.executeFuncUnits.funcUnits0.opClasses.opClasses]
type=MinorOpClass
eventq_index=0
opClass=IntAlu

[system.cpu_cluster.cpus.executeFuncUnits.funcUnits0.timings00]
type=MinorFUTiming
children=opClasses
description=HPI_SSAT_USAT_no_shift_A1
eventq_index=0
extraAssumedLat=0
extraCommitLat=0
extraCommitLatExpr=Null
mask=120521232368
match=111149072
opClasses=system.cpu_cluster.cpus.executeFuncUnits.funcUnits0.timings00.opClasses
srcRegsRelativeLats=0 0 0 2 0
suppress=false

[system.cpu_cluster.cpus.executeFuncUnits.funcUnits0.timings00.opClasses]
type=MinorOpClassSet
eventq_index=0
opClasses=

[system.cpu_cluster.cpus.executeFuncUnits.funcUnits0.timings01]
type=MinorFUTiming
children=opClasses
description=HPI_SSAT_USAT_shift_A1
eventq_index=0
extraAssumedLat=0
extraCommitLat=0
extraCommitLatExpr=Null
mask=120521228336
match=111149072
opClasses=system.cpu_cluster.cpus.executeFuncUnits.funcUnits0.timings01.opClasses
srcRegsRelativeLats=0 0 0 1 0
suppress=false

[system.cpu_cluster.cpus.executeFuncUnits.funcUnits0.timings01.opClasses]
type=MinorOpClassSet
eventq_index=0
opClasses=

[system.cpu_cluster.cpus.executeFuncUnits.funcUnits0.timings02]
type=MinorFUTiming
children=opClasses
description=HPI_SSAT16_USAT16_A1
eventq_index=0
extraAssumedLat=0
extraCommitLat=0
extraCommitLatExpr=Null
mask=120522277104
match=111149104
opClasses=system.cpu_cluster.cpus.executeFuncUnits.funcUnits0.timings02.opClasses
srcRegsRelativeLats=0 0 0 2 0
suppress=false

[system.cpu_cluster.cpus.executeFuncUnits.funcUnits0.timings02.opClasses]
type=MinorOpClassSet
eventq_index=0
opClasses=

[system.cpu_cluster.cpus.executeFuncUnits.funcUnits0.timings03]
type=MinorFUTiming
children=opClasses
description=HPI_QADD_QSUB_A1
eventq_index=0
extraAssumedLat=0
extraCommitLat=0
extraCommitLatExpr=Null
mask=120524374256
match=16777296
opClasses=system.cpu_cluster.cpus.executeFuncUnits.funcUnits0.timings03.opClasses
srcRegsRelativeLats=0 0 0 1 1 0
suppress=false

[system.cpu_cluster.cpus.executeFuncUnits.funcUnits0.timings03.opClasses]
type=MinorOpClassSet
eventq_index=0
opClasses=

[system.cpu_cluster.cpus.executeFuncUnits.funcUnits0.timings04]
type=MinorFUTiming
children=opClasses
description=HPI_QADD_QSUB_T1
eventq_index=0
extraAssumedLat=0
extraCommitLat=0
extraCommitLatExpr=Null
mask=124553064656
match=107281969280
opClasses=system.cpu_cluster.cpus.executeFuncUnits.funcUnits0.timings04.opClasses
srcRegsRelativeLats=0 0 0 1 1 0
suppress=false

[system.cpu_cluster.cpus.executeFuncUnits.funcUnits0.timings04.opClasses]
type=MinorOpClassSet
eventq_index=0
opClasses=

[system.cpu_cluster.cpus.executeFuncUnits.funcUnits0.timings05]
type=MinorFUTiming
children=opClasses
description=HPI_QADD_ETC_A1
eventq_index=0
extraAssumedLat=0
extraCommitLat=0
extraCommitLatExpr=Null
mask=120522276880
match=102760464
opClasses=system.cpu_cluster.cpus.executeFuncUnits.funcUnits0.timings05.opClasses
srcRegsRelativeLats=0 0 0 1 1 0
suppress=false

[system.cpu_cluster.cpus.executeFuncUnits.funcUnits0.timings05.opClasses]
type=MinorOpClassSet
eventq_index=0
opClasses=

[system.cpu_cluster.cpus.executeFuncUnits.funcUnits0.timings06]
type=MinorFUTiming
children=opClasses
description=HPI_QASX_QSAX_UQASX_UQSAX_T1
eventq_index=0
extraAssumedLat=0
extraCommitLat=0
extraCommitLatExpr=Null
mask=124548870320
match=107284066320
opClasses=system.cpu_cluster.cpus.executeFuncUnits.funcUnits0.timings06.opClasses
srcRegsRelativeLats=0 0 0 1 1 0
suppress=false

[system.cpu_cluster.cpus.executeFuncUnits.funcUnits0.timings06.opClasses]
type=MinorOpClassSet
eventq_index=0
opClasses=

[system.cpu_cluster.cpus.executeFuncUnits.funcUnits0.timings07]
type=MinorFUTiming
children=opClasses
description=HPI_QADD_ETC_T1
eventq_index=0
extraAssumedLat=0
extraCommitLat=0
extraCommitLatExpr=Null
mask=124547821744
match=107281969168
opClasses=system.cpu_cluster.cpus.executeFuncUnits.funcUnits0.timings07.opClasses
srcRegsRelativeLats=0 0 0 1 1 0
suppress=false

[system.cpu_cluster.cpus.executeFuncUnits.funcUnits0.timings07.opClasses]
type=MinorOpClassSet
eventq_index=0
opClasses=

[system.cpu_cluster.cpus.executeFuncUnits.funcUnits0.timings08]
type=MinorFUTiming
children=opClasses
description=HPI_USUB_ETC_A1
eventq_index=0
extraAssumedLat=0
extraCommitLat=0
extraCommitLatExpr=Null
mask=120520179824
match=101711984
opClasses=system.cpu_cluster.cpus.executeFuncUnits.funcUnits0.timings08.opClasses
srcRegsRelativeLats=0 0 0 2 2 0
suppress=false

[system.cpu_cluster.cpus.executeFuncUnits.funcUnits0.timings08.opClasses]
type=MinorOpClassSet
eventq_index=0
opClasses=

[system.cpu_cluster.cpus.executeFuncUnits.funcUnits0.timings09]
type=MinorFUTiming
children=opClasses
description=HPI_ADD_ETC_A1
eventq_index=0
extraAssumedLat=0
extraCommitLat=0
extraCommitLatExpr=Null
mask=120520179824
match=101711888
opClasses=system.cpu_cluster.cpus.executeFuncUnits.funcUnits0.timings09.opClasses
srcRegsRelativeLats=0 0 0 2 2 0
suppress=false

[system.cpu_cluster.cpus.executeFuncUnits.funcUnits0.timings09.opClasses]
type=MinorOpClassSet
eventq_index=0
opClasses=

[system.cpu_cluster.cpus.executeFuncUnits.funcUnits0.timings10]
type=MinorFUTiming
children=opClasses
description=HPI_ADD_ETC_A1
eventq_index=0
extraAssumedLat=0
extraCommitLat=0
extraCommitLatExpr=Null
mask=124552016016
match=107281969152
opClasses=system.cpu_cluster.cpus.executeFuncUnits.funcUnits0.timings10.opClasses
srcRegsRelativeLats=0 0 0 2 2 0
suppress=false

[system.cpu_cluster.cpus.executeFuncUnits.funcUnits0.timings10.opClasses]
type=MinorOpClassSet
eventq_index=0
opClasses=

[system.cpu_cluster.cpus.executeFuncUnits.funcUnits0.timings11]
type=MinorFUTiming
children=opClasses
description=HPI_QDADD_QSUB_A1
eventq_index=0
extraAssumedLat=0
extraCommitLat=0
extraCommitLatExpr=Null
mask=120524374256
match=20971600
opClasses=system.cpu_cluster.cpus.executeFuncUnits.funcUnits0.timings11.opClasses
srcRegsRelativeLats=0 0 0 0 1 0
suppress=false

[system.cpu_cluster.cpus.executeFuncUnits.funcUnits0.timings11.opClasses]
type=MinorOpClassSet
eventq_index=0
opClasses=

[system.cpu_cluster.cpus.executeFuncUnits.funcUnits0.timings12]
type=MinorFUTiming
children=opClasses
description=HPI_QDADD_QDSUB_T1
eventq_index=0
extraAssumedLat=0
extraCommitLat=0
extraCommitLatExpr=Null
mask=124553064656
match=107281969296
opClasses=system.cpu_cluster.cpus.executeFuncUnits.funcUnits0.timings12.opClasses
srcRegsRelativeLats=0 0 0 0 1 0
suppress=false

[system.cpu_cluster.cpus.executeFuncUnits.funcUnits0.timings12.opClasses]
type=MinorOpClassSet
eventq_index=0
opClasses=

[system.cpu_cluster.cpus.executeFuncUnits.funcUnits0.timings13]
type=MinorFUTiming
children=opClasses
description=HPI_SASX_SHASX_UASX_UHASX_A1
eventq_index=0
extraAssumedLat=0
extraCommitLat=0
extraCommitLatExpr=Null
mask=120520179952
match=101711920
opClasses=system.cpu_cluster.cpus.executeFuncUnits.funcUnits0.timings13.opClasses
srcRegsRelativeLats=3 3 2 2 2 1 0
suppress=false

[system.cpu_cluster.cpus.executeFuncUnits.funcUnits0.timings13.opClasses]
type=MinorOpClassSet
eventq_index=0
opClasses=

[system.cpu_cluster.cpus.executeFuncUnits.funcUnits0.timings14]
type=MinorFUTiming
children=opClasses
description=HPI_SHSAX_SSAX_UHSAX_USAX_A1
eventq_index=0
extraAssumedLat=0
extraCommitLat=0
extraCommitLatExpr=Null
mask=120520179952
match=101711952
opClasses=system.cpu_cluster.cpus.executeFuncUnits.funcUnits0.timings14.opClasses
srcRegsRelativeLats=3 3 2 2 2 1 0
suppress=false

[system.cpu_cluster.cpus.executeFuncUnits.funcUnits0.timings14.opClasses]
type=MinorOpClassSet
eventq_index=0
opClasses=

[system.cpu_cluster.cpus.executeFuncUnits.funcUnits0.timings15]
type=MinorFUTiming
children=opClasses
description=HPI_SXTB_SXTB16_SXTH_UXTB_UXTB16_UXTH_A1
eventq_index=0
extraAssumedLat=0
extraCommitLat=0
extraCommitLatExpr=Null
mask=120520114416
match=110035056
opClasses=system.cpu_cluster.cpus.executeFuncUnits.funcUnits0.timings15.opClasses
srcRegsRelativeLats=0 0 0 2 0
suppress=false

[system.cpu_cluster.cpus.executeFuncUnits.funcUnits0.timings15.opClasses]
type=MinorOpClassSet
eventq_index=0
opClasses=

[system.cpu_cluster.cpus.executeFuncUnits.funcUnits0.timings16]
type=MinorFUTiming
children=opClasses
description=HPI_SXTAB_SXTAB16_SXTAH_UXTAB_UXTAB16_UXTAH_A1
eventq_index=0
extraAssumedLat=0
extraCommitLat=0
extraCommitLatExpr=Null
mask=120519131376
match=109052016
opClasses=system.cpu_cluster.cpus.executeFuncUnits.funcUnits0.timings16.opClasses
srcRegsRelativeLats=0 0 0 1 2 0
suppress=false

[system.cpu_cluster.cpus.executeFuncUnits.funcUnits0.timings16.opClasses]
type=MinorOpClassSet
eventq_index=0
opClasses=

[system.cpu_cluster.cpus.executeFuncUnits.funcUnits0.timings17]
type=MinorFUTiming
children=opClasses
description=HPI_SXTAB_T1
eventq_index=0
extraAssumedLat=0
extraCommitLat=0
extraCommitLatExpr=Null
mask=124553064576
match=107277774976
opClasses=system.cpu_cluster.cpus.executeFuncUnits.funcUnits0.timings17.opClasses
srcRegsRelativeLats=0 0 0 1 2 0
suppress=false

[system.cpu_cluster.cpus.executeFuncUnits.funcUnits0.timings17.opClasses]
type=MinorOpClassSet
eventq_index=0
opClasses=

[system.cpu_cluster.cpus.executeFuncUnits.funcUnits0.timings18]
type=MinorFUTiming
children=opClasses
description=HPI_SXTAB16_T1
eventq_index=0
extraAssumedLat=0
extraCommitLat=0
extraCommitLatExpr=Null
mask=124553064576
match=107275677824
opClasses=system.cpu_cluster.cpus.executeFuncUnits.funcUnits0.timings18.opClasses
srcRegsRelativeLats=0 0 0 1 2 0
suppress=false

[system.cpu_cluster.cpus.executeFuncUnits.funcUnits0.timings18.opClasses]
type=MinorOpClassSet
eventq_index=0
opClasses=

[system.cpu_cluster.cpus.executeFuncUnits.funcUnits0.timings19]
type=MinorFUTiming
children=opClasses
description=HPI_SXTAH_T1
eventq_index=0
extraAssumedLat=0
extraCommitLat=0
extraCommitLatExpr=Null
mask=124553064576
match=107273580672
opClasses=system.cpu_cluster.cpus.executeFuncUnits.funcUnits0.timings19.opClasses
srcRegsRelativeLats=0 0 0 1 2 0
suppress=false

[system.cpu_cluster.cpus.executeFuncUnits.funcUnits0.timings19.opClasses]
type=MinorOpClassSet
eventq_index=0
opClasses=

[system.cpu_cluster.cpus.executeFuncUnits.funcUnits0.timings20]
type=MinorFUTiming
children=opClasses
description=HPI_SXTB_T2
eventq_index=0
extraAssumedLat=0
extraCommitLat=0
extraCommitLatExpr=Null
mask=124554047616
match=107278758016
opClasses=system.cpu_cluster.cpus.executeFuncUnits.funcUnits0.timings20.opClasses
srcRegsRelativeLats=0 0 0 1 2 0
suppress=false

[system.cpu_cluster.cpus.executeFuncUnits.funcUnits0.timings20.opClasses]
type=MinorOpClassSet
eventq_index=0
opClasses=

[system.cpu_cluster.cpus.executeFuncUnits.funcUnits0.timings21]
type=MinorFUTiming
children=opClasses
description=HPI_SXTB16_T1
eventq_index=0
extraAssumedLat=0
extraCommitLat=0
extraCommitLatExpr=Null
mask=124554047616
match=107276660864
opClasses=system.cpu_cluster.cpus.executeFuncUnits.funcUnits0.timings21.opClasses
srcRegsRelativeLats=0 0 0 1 2 0
suppress=false

[system.cpu_cluster.cpus.executeFuncUnits.funcUnits0.timings21.opClasses]
type=MinorOpClassSet
eventq_index=0
opClasses=

[system.cpu_cluster.cpus.executeFuncUnits.funcUnits0.timings22]
type=MinorFUTiming
children=opClasses
description=HPI_SXTH_T2
eventq_index=0
extraAssumedLat=0
extraCommitLat=0
extraCommitLatExpr=Null
mask=124554047616
match=107274563712
opClasses=system.cpu_cluster.cpus.executeFuncUnits.funcUnits0.timings22.opClasses
srcRegsRelativeLats=0 0 0 1 2 0
suppress=false

[system.cpu_cluster.cpus.executeFuncUnits.funcUnits0.timings22.opClasses]
type=MinorOpClassSet
eventq_index=0
opClasses=

[system.cpu_cluster.cpus.executeFuncUnits.funcUnits0.timings23]
type=MinorFUTiming
children=opClasses
description=HPI_PKH_A1
eventq_index=0
extraAssumedLat=0
extraCommitLat=0
extraCommitLatExpr=Null
mask=120526471216
match=109051920
opClasses=system.cpu_cluster.cpus.executeFuncUnits.funcUnits0.timings23.opClasses
srcRegsRelativeLats=0 0 0 2 1 0
suppress=false

[system.cpu_cluster.cpus.executeFuncUnits.funcUnits0.timings23.opClasses]
type=MinorOpClassSet
eventq_index=0
opClasses=

[system.cpu_cluster.cpus.executeFuncUnits.funcUnits0.timings24]
type=MinorFUTiming
children=opClasses
description=HPI_PKH_T1
eventq_index=0
extraAssumedLat=0
extraCommitLat=0
extraCommitLatExpr=Null
mask=124551954432
match=107017666560
opClasses=system.cpu_cluster.cpus.executeFuncUnits.funcUnits0.timings24.opClasses
srcRegsRelativeLats=0 0 0 2 1 0
suppress=false

[system.cpu_cluster.cpus.executeFuncUnits.funcUnits0.timings24.opClasses]
type=MinorOpClassSet
eventq_index=0
opClasses=

[system.cpu_cluster.cpus.executeFuncUnits.funcUnits0.timings25]
type=MinorFUTiming
children=opClasses
description=HPI_SBFX_UBFX_A1
eventq_index=0
extraAssumedLat=0
extraCommitLat=0
extraCommitLatExpr=Null
mask=120521228400
match=127926352
opClasses=system.cpu_cluster.cpus.executeFuncUnits.funcUnits0.timings25.opClasses
srcRegsRelativeLats=0 0 0 1 0
suppress=false

[system.cpu_cluster.cpus.executeFuncUnits.funcUnits0.timings25.opClasses]
type=MinorOpClassSet
eventq_index=0
opClasses=

[system.cpu_cluster.cpus.executeFuncUnits.funcUnits0.timings26]
type=MinorFUTiming
children=opClasses
description=HPI_SEL_A1
eventq_index=0
extraAssumedLat=0
extraCommitLat=0
extraCommitLatExpr=Null
mask=120526471408
match=109052080
opClasses=system.cpu_cluster.cpus.executeFuncUnits.funcUnits0.timings26.opClasses
srcRegsRelativeLats=0 0 0 0 2 2 0
suppress=false

[system.cpu_cluster.cpus.executeFuncUnits.funcUnits0.timings26.opClasses]
type=MinorOpClassSet
eventq_index=0
opClasses=

[system.cpu_cluster.cpus.executeFuncUnits.funcUnits0.timings27]
type=MinorFUTiming
children=opClasses
description=HPI_RBIT_A1
eventq_index=0
extraAssumedLat=0
extraCommitLat=0
extraCommitLatExpr=Null
mask=120526471408
match=116391984
opClasses=system.cpu_cluster.cpus.executeFuncUnits.funcUnits0.timings27.opClasses
srcRegsRelativeLats=0 0 0 1 0
suppress=false

[system.cpu_cluster.cpus.executeFuncUnits.funcUnits0.timings27.opClasses]
type=MinorOpClassSet
eventq_index=0
opClasses=

[system.cpu_cluster.cpus.executeFuncUnits.funcUnits0.timings28]
type=MinorFUTiming
children=opClasses
description=HPI_REV_REV16_A1
eventq_index=0
extraAssumedLat=0
extraCommitLat=0
extraCommitLatExpr=Null
mask=120526471280
match=112197680
opClasses=system.cpu_cluster.cpus.executeFuncUnits.funcUnits0.timings28.opClasses
srcRegsRelativeLats=0 0 0 1 0
suppress=false

[system.cpu_cluster.cpus.executeFuncUnits.funcUnits0.timings28.opClasses]
type=MinorOpClassSet
eventq_index=0
opClasses=

[system.cpu_cluster.cpus.executeFuncUnits.funcUnits0.timings29]
type=MinorFUTiming
children=opClasses
description=HPI_REVSH_A1
eventq_index=0
extraAssumedLat=0
extraCommitLat=0
extraCommitLatExpr=Null
mask=120526471408
match=116392112
opClasses=system.cpu_cluster.cpus.executeFuncUnits.funcUnits0.timings29.opClasses
srcRegsRelativeLats=0 0 0 1 0
suppress=false

[system.cpu_cluster.cpus.executeFuncUnits.funcUnits0.timings29.opClasses]
type=MinorOpClassSet
eventq_index=0
opClasses=

[system.cpu_cluster.cpus.executeFuncUnits.funcUnits0.timings30]
type=MinorFUTiming
children=opClasses
description=HPI_USAD8_USADA8_A1
eventq_index=0
extraAssumedLat=0
extraCommitLat=0
extraCommitLatExpr=Null
mask=120526471408
match=125829136
opClasses=system.cpu_cluster.cpus.executeFuncUnits.funcUnits0.timings30.opClasses
srcRegsRelativeLats=0 0 0 0 0 2 0
suppress=false

[system.cpu_cluster.cpus.executeFuncUnits.funcUnits0.timings30.opClasses]
type=MinorOpClassSet
eventq_index=0
opClasses=

[system.cpu_cluster.cpus.executeFuncUnits.funcUnits0.timings31]
type=MinorFUTiming
children=opClasses
description=HPI_BFI_A1
eventq_index=0
extraAssumedLat=0
extraCommitLat=0
extraCommitLatExpr=Null
mask=120525422704
match=130023440
opClasses=system.cpu_cluster.cpus.executeFuncUnits.funcUnits0.timings31.opClasses
srcRegsRelativeLats=0 0 0 1 1 0
suppress=false

[system.cpu_cluster.cpus.executeFuncUnits.funcUnits0.timings31.opClasses]
type=MinorOpClassSet
eventq_index=0
opClasses=

[system.cpu_cluster.cpus.executeFuncUnits.funcUnits0.timings32]
type=MinorFUTiming
children=opClasses
description=HPI_BFI_T1
eventq_index=0
extraAssumedLat=0
extraCommitLat=0
extraCommitLatExpr=Null
mask=124485926912
match=107162370048
opClasses=system.cpu_cluster.cpus.executeFuncUnits.funcUnits0.timings32.opClasses
srcRegsRelativeLats=0 0 0 1 1 0
suppress=false

[system.cpu_cluster.cpus.executeFuncUnits.funcUnits0.timings32.opClasses]
type=MinorOpClassSet
eventq_index=0
opClasses=

[system.cpu_cluster.cpus.executeFuncUnits.funcUnits0.timings33]
type=MinorFUTiming
children=opClasses
description=HPI_CMN_register_A1
eventq_index=0
extraAssumedLat=0
extraCommitLat=0
extraCommitLatExpr=Null
mask=120526471184
match=24117248
opClasses=system.cpu_cluster.cpus.executeFuncUnits.funcUnits0.timings33.opClasses
srcRegsRelativeLats=3 3 3 2 2 3 3 3 0
suppress=false

[system.cpu_cluster.cpus.executeFuncUnits.funcUnits0.timings33.opClasses]
type=MinorOpClassSet
eventq_index=0
opClasses=

[system.cpu_cluster.cpus.executeFuncUnits.funcUnits0.timings34]
type=MinorFUTiming
children=opClasses
description=HPI_CMN_immediate_A1
eventq_index=0
extraAssumedLat=0
extraCommitLat=0
extraCommitLatExpr=Null
mask=120526471168
match=57671680
opClasses=system.cpu_cluster.cpus.executeFuncUnits.funcUnits0.timings34.opClasses
srcRegsRelativeLats=3 3 3 2 2 3 3 3 0
suppress=false

[system.cpu_cluster.cpus.executeFuncUnits.funcUnits0.timings34.opClasses]
type=MinorOpClassSet
eventq_index=0
opClasses=

[system.cpu_cluster.cpus.executeFuncUnits.funcUnits0.timings35]
type=MinorFUTiming
children=opClasses
description=HPI_CMP_register_A1
eventq_index=0
extraAssumedLat=0
extraCommitLat=0
extraCommitLatExpr=Null
mask=120526471184
match=22020096
opClasses=system.cpu_cluster.cpus.executeFuncUnits.funcUnits0.timings35.opClasses
srcRegsRelativeLats=3 3 3 2 2 3 3 3 0
suppress=false

[system.cpu_cluster.cpus.executeFuncUnits.funcUnits0.timings35.opClasses]
type=MinorOpClassSet
eventq_index=0
opClasses=

[system.cpu_cluster.cpus.executeFuncUnits.funcUnits0.timings36]
type=MinorFUTiming
children=opClasses
description=HPI_CMP_immediate_A1
eventq_index=0
extraAssumedLat=0
extraCommitLat=0
extraCommitLatExpr=Null
mask=120526471168
match=55574528
opClasses=system.cpu_cluster.cpus.executeFuncUnits.funcUnits0.timings36.opClasses
srcRegsRelativeLats=3 3 3 2 2 3 3 3 0
suppress=false

[system.cpu_cluster.cpus.executeFuncUnits.funcUnits0.timings36.opClasses]
type=MinorOpClassSet
eventq_index=0
opClasses=

[system.cpu_cluster.cpus.executeFuncUnits.funcUnits0.timings37]
type=MinorFUTiming